# generated using pymatgen
data_MnO3
_symmetry_space_group_name_H-M   'P 1'
_cell_length_a   4.88082493
_cell_length_b   4.88082493
_cell_length_c   5.86507030
_cell_angle_alpha   78.77394929
_cell_angle_beta   101.22605071
_cell_angle_gamma   63.18874532
_symmetry_Int_Tables_number   1
_chemical_formula_structural   MnO3
_chemical_formula_sum   'Mn2 O6'
_cell_volume   115.77079285
_cell_formula_units_Z   2
loop_
 _symmetry_equiv_pos_site_id
 _symmetry_equiv_pos_as_xyz
  1  'x, y, z'
loop_
 _atom_site_type_symbol
 _atom_site_label
 _atom_site_symmetry_multiplicity
 _atom_site_fract_x
 _atom_site_fract_y
 _atom_site_fract_z
 _atom_site_occupancy
  Mn  Mn1  1  0.900360  0.760402  0.002687  1
  Mn  Mn2  1  0.239598  0.099640  0.002687  1
  O  O3  1  0.021609  0.978391  0.176545  1
  O  O4  1  0.154622  0.352505  0.205700  1
  O  O5  1  0.647495  -0.154622  0.205700  1
  O  O6  1  0.114110  0.885890  0.814274  1
  O  O7  1  0.925796  0.503492  0.796203  1
  O  O8  1  0.496508  0.074204  0.796203  1
