# generated using pymatgen
data_LiMn2O6
_symmetry_space_group_name_H-M   'P 1'
_cell_length_a   8.61516964
_cell_length_b   4.99395931
_cell_length_c   13.23090740
_cell_angle_alpha   79.46480835
_cell_angle_beta   108.31263699
_cell_angle_gamma   89.64918568
_symmetry_Int_Tables_number   1
_chemical_formula_structural   LiMn2O6
_chemical_formula_sum   'Li6 Mn12 O36'
_cell_volume   530.07161478
_cell_formula_units_Z   6
loop_
 _symmetry_equiv_pos_site_id
 _symmetry_equiv_pos_as_xyz
  1  'x, y, z'
loop_
 _atom_site_type_symbol
 _atom_site_label
 _atom_site_symmetry_multiplicity
 _atom_site_fract_x
 _atom_site_fract_y
 _atom_site_fract_z
 _atom_site_occupancy
  Li  Li1  1  -0.073555  0.073241  -0.146990  1
  Li  Li2  1  0.592052  0.408214  0.186181  1
  Li  Li3  1  0.759397  0.240144  0.519768  1
  Li  Li4  1  0.259667  0.739713  0.519821  1
  Li  Li5  1  0.426408  0.573226  -0.147017  1
  Li  Li6  1  0.092207  0.908562  0.186187  1
  Mn  Mn7  1  0.676810  0.655182  0.686524  1
  Mn  Mn8  1  0.342364  0.324513  0.352129  1
  Mn  Mn9  1  0.009274  0.325285  0.353113  1
  Mn  Mn10  1  0.175851  0.492246  0.019017  1
  Mn  Mn11  1  0.010217  0.655966  0.686042  1
  Mn  Mn12  1  0.841953  0.490587  0.019012  1
  Mn  Mn13  1  0.176546  0.154775  0.686110  1
  Mn  Mn14  1  0.510397  0.156303  0.686363  1
  Mn  Mn15  1  0.342070  -0.008887  0.019127  1
  Mn  Mn16  1  0.675662  -0.008252  0.018903  1
  Mn  Mn17  1  0.508480  0.823510  0.351986  1
  Mn  Mn18  1  0.842707  0.826555  0.353008  1
  O  O19  1  -0.040654  0.689003  0.271731  1
  O  O20  1  0.313785  0.686083  0.269487  1
  O  O21  1  0.636494  0.723599  0.269921  1
  O  O22  1  0.135123  0.223227  0.270085  1
  O  O23  1  0.456444  0.185515  0.269725  1
  O  O24  1  0.813494  0.189879  0.271468  1
  O  O25  1  -0.018604  0.017296  0.604047  1
  O  O26  1  0.303714  0.054127  0.603662  1
  O  O27  1  0.625938  0.017350  0.604849  1
  O  O28  1  0.125492  0.516820  0.604282  1
  O  O29  1  0.481293  0.518120  0.604628  1
  O  O30  1  0.803393  0.553860  0.603791  1
  O  O31  1  0.147226  0.853983  0.936993  1
  O  O32  1  0.468928  0.888787  0.936675  1
  O  O33  1  0.790260  0.852328  0.936584  1
  O  O34  1  -0.030492  0.388599  0.936826  1
  O  O35  1  0.290555  0.352717  0.936849  1
  O  O36  1  0.646731  0.353471  0.936695  1
  O  O37  1  0.205715  -0.207491  0.767870  1
  O  O38  1  0.382858  0.257837  0.768591  1
  O  O39  1  0.561763  -0.205416  0.768652  1
  O  O40  1  0.060742  0.293952  0.767859  1
  O  O41  1  0.705527  0.293811  0.768564  1
  O  O42  1  0.883667  0.758889  0.768493  1
  O  O43  1  0.048643  0.593785  0.101308  1
  O  O44  1  0.226438  0.130183  0.101124  1
  O  O45  1  0.870322  0.129127  0.101094  1
  O  O46  1  0.370397  0.629496  0.101463  1
  O  O47  1  0.548941  0.093937  0.101325  1
  O  O48  1  0.725871  0.629561  0.100682  1
  O  O49  1  -0.106195  0.463622  0.435039  1
  O  O50  1  0.537401  0.461083  0.433985  1
  O  O51  1  0.714536  0.928462  0.434570  1
  O  O52  1  0.216042  0.427311  0.434804  1
  O  O53  1  0.392089  -0.038635  0.433635  1
  O  O54  1  0.037619  -0.037159  0.435362  1
