# generated using pymatgen
data_LiMn2O6
_symmetry_space_group_name_H-M   'P 1'
_cell_length_a   9.19572911
_cell_length_b   5.24857759
_cell_length_c   13.32877668
_cell_angle_alpha   93.23661644
_cell_angle_beta   77.24694820
_cell_angle_gamma   89.70527563
_symmetry_Int_Tables_number   1
_chemical_formula_structural   LiMn2O6
_chemical_formula_sum   'Li6 Mn12 O36'
_cell_volume   626.33345241
_cell_formula_units_Z   6
loop_
 _symmetry_equiv_pos_site_id
 _symmetry_equiv_pos_as_xyz
  1  'x, y, z'
loop_
 _atom_site_type_symbol
 _atom_site_label
 _atom_site_symmetry_multiplicity
 _atom_site_fract_x
 _atom_site_fract_y
 _atom_site_fract_z
 _atom_site_occupancy
  Li  Li1  1  0.073623  -0.008370  -0.071860  1
  Li  Li2  1  0.748166  0.237061  0.198472  1
  Li  Li3  1  0.854765  0.103109  0.581248  1
  Li  Li4  1  0.315025  0.709311  0.571750  1
  Li  Li5  1  0.534371  0.404236  -0.128532  1
  Li  Li6  1  0.150235  0.800574  0.285952  1
  Mn  Mn7  1  0.655607  0.652606  0.636276  1
  Mn  Mn8  1  0.352329  0.333657  0.333774  1
  Mn  Mn9  1  -0.034572  0.264919  0.356359  1
  Mn  Mn10  1  0.147252  0.545164  0.058038  1
  Mn  Mn11  1  -0.008650  0.797170  0.713627  1
  Mn  Mn12  1  0.811917  0.455717  -0.044794  1
  Mn  Mn13  1  0.101290  0.299983  0.720462  1
  Mn  Mn14  1  0.463087  0.258945  0.646564  1
  Mn  Mn15  1  0.297770  -0.019795  0.041402  1
  Mn  Mn16  1  0.688245  0.002797  -0.013824  1
  Mn  Mn17  1  0.502879  0.907247  0.353057  1
  Mn  Mn18  1  0.853508  0.779246  0.356053  1
  O  O19  1  -0.004958  0.562874  0.285704  1
  O  O20  1  0.339786  0.735887  0.317159  1
  O  O21  1  0.669791  0.666923  0.314073  1
  O  O22  1  0.175653  0.168343  0.298182  1
  O  O23  1  0.529303  0.164463  0.267843  1
  O  O24  1  0.869184  0.063148  0.279019  1
  O  O25  1  0.028534  0.096156  0.637524  1
  O  O26  1  0.355220  0.079665  0.555084  1
  O  O27  1  0.636938  0.026445  0.597264  1
  O  O28  1  0.120959  0.584485  0.633480  1
  O  O29  1  0.504155  0.530683  0.571311  1
  O  O30  1  0.816288  0.469024  0.544015  1
  O  O31  1  0.213636  0.763438  0.958556  1
  O  O32  1  0.580848  0.726086  0.945510  1
  O  O33  1  0.877934  0.865994  0.946387  1
  O  O34  1  0.023503  0.336461  0.991261  1
  O  O35  1  0.361995  0.248205  0.955646  1
  O  O36  1  0.712217  0.217345  0.884988  1
  O  O37  1  0.080926  0.010851  0.792950  1
  O  O38  1  0.285379  0.326791  0.731016  1
  O  O39  1  0.541450  -0.054856  0.695221  1
  O  O40  1  -0.025317  0.501236  0.804035  1
  O  O41  1  0.576293  0.430029  0.726200  1
  O  O42  1  0.809686  0.761729  0.692437  1
  O  O43  1  0.010449  0.292952  0.102530  1
  O  O44  1  0.321780  0.365551  0.060275  1
  O  O45  1  0.718107  0.279587  0.066327  1
  O  O46  1  0.197691  0.791144  0.144972  1
  O  O47  1  0.504132  -0.148157  0.044471  1
  O  O48  1  0.822069  0.758610  0.046251  1
  O  O49  1  -0.195225  0.452963  0.437419  1
  O  O50  1  0.376577  0.643884  0.413777  1
  O  O51  1  0.649908  0.824425  0.416712  1
  O  O52  1  0.149808  0.314676  0.402244  1
  O  O53  1  0.412653  0.144669  0.452106  1
  O  O54  1  0.945802  -0.027285  0.436025  1
