# generated using pymatgen
data_MnO3
_symmetry_space_group_name_H-M   'P 1'
_cell_length_a   4.96597563
_cell_length_b   8.79724056
_cell_length_c   4.82209882
_cell_angle_alpha   90.00000000
_cell_angle_beta   120.82912666
_cell_angle_gamma   90.00000000
_symmetry_Int_Tables_number   1
_chemical_formula_structural   MnO3
_chemical_formula_sum   'Mn4 O12'
_cell_volume   180.89574889
_cell_formula_units_Z   4
loop_
 _symmetry_equiv_pos_site_id
 _symmetry_equiv_pos_as_xyz
  1  'x, y, z'
loop_
 _atom_site_type_symbol
 _atom_site_label
 _atom_site_symmetry_multiplicity
 _atom_site_fract_x
 _atom_site_fract_y
 _atom_site_fract_z
 _atom_site_occupancy
  Mn  Mn1  1  0.000000  0.164505  -0.000000  1
  Mn  Mn2  1  0.000000  0.835495  -0.000000  1
  Mn  Mn3  1  0.500000  0.664505  -0.000000  1
  Mn  Mn4  1  0.500000  0.335495  -0.000000  1
  O  O5  1  0.247378  -0.000000  0.254075  1
  O  O6  1  0.752622  -0.000000  0.745925  1
  O  O7  1  0.747378  0.500000  0.254075  1
  O  O8  1  0.252622  0.500000  0.745925  1
  O  O9  1  0.294519  0.319887  0.238301  1
  O  O10  1  0.705481  0.680113  0.761699  1
  O  O11  1  0.705481  0.319887  0.761699  1
  O  O12  1  0.294519  0.680113  0.238301  1
  O  O13  1  0.794519  0.819887  0.238301  1
  O  O14  1  0.205481  0.180113  0.761699  1
  O  O15  1  0.205481  0.819887  0.761699  1
  O  O16  1  0.794519  0.180113  0.238301  1
