# generated using pymatgen
data_LiMn2O6
_symmetry_space_group_name_H-M   'P 1'
_cell_length_a   5.12982663
_cell_length_b   8.70873500
_cell_length_c   3.79065977
_cell_angle_alpha   90.00000000
_cell_angle_beta   98.94499933
_cell_angle_gamma   90.00000000
_symmetry_Int_Tables_number   1
_chemical_formula_structural   LiMn2O6
_chemical_formula_sum   'Li2 Mn4 O12'
_cell_volume   167.28550892
_cell_formula_units_Z   2
loop_
 _symmetry_equiv_pos_site_id
 _symmetry_equiv_pos_as_xyz
  1  'x, y, z'
loop_
 _atom_site_type_symbol
 _atom_site_label
 _atom_site_symmetry_multiplicity
 _atom_site_fract_x
 _atom_site_fract_y
 _atom_site_fract_z
 _atom_site_occupancy
  Li  Li1  1  -0.000000  0.500000  0.000000  1
  Li  Li2  1  0.500000  0.000000  0.000000  1
  Mn  Mn3  1  -0.000000  0.185580  0.000000  1
  Mn  Mn4  1  -0.000000  0.814420  0.000000  1
  Mn  Mn5  1  0.500000  0.685580  0.000000  1
  Mn  Mn6  1  0.500000  0.314420  0.000000  1
  O  O7  1  0.928012  -0.000000  0.320643  1
  O  O8  1  0.071988  -0.000000  0.679357  1
  O  O9  1  0.428012  0.500000  0.320643  1
  O  O10  1  0.571988  0.500000  0.679357  1
  O  O11  1  0.843451  0.331388  0.229082  1
  O  O12  1  0.156549  0.668612  0.770918  1
  O  O13  1  0.156549  0.331388  0.770918  1
  O  O14  1  0.843451  0.668612  0.229082  1
  O  O15  1  0.343451  0.831388  0.229082  1
  O  O16  1  0.656549  0.168612  0.770918  1
  O  O17  1  0.656549  0.831388  0.770918  1
  O  O18  1  0.343451  0.168612  0.229082  1
