# generated using pymatgen
data_MnO3
_symmetry_space_group_name_H-M   'P 1'
_cell_length_a   9.11151161
_cell_length_b   5.48248396
_cell_length_c   15.13340099
_cell_angle_alpha   90.33845127
_cell_angle_beta   89.38583699
_cell_angle_gamma   85.84704420
_symmetry_Int_Tables_number   1
_chemical_formula_structural   MnO3
_chemical_formula_sum   'Mn12 O36'
_cell_volume   753.92440517
_cell_formula_units_Z   12
loop_
 _symmetry_equiv_pos_site_id
 _symmetry_equiv_pos_as_xyz
  1  'x, y, z'
loop_
 _atom_site_type_symbol
 _atom_site_label
 _atom_site_symmetry_multiplicity
 _atom_site_fract_x
 _atom_site_fract_y
 _atom_site_fract_z
 _atom_site_occupancy
  Mn  Mn1  1  0.684380  0.722010  0.667316  1
  Mn  Mn2  1  0.313997  0.277713  0.334977  1
  Mn  Mn3  1  0.017255  0.387749  0.334986  1
  Mn  Mn4  1  0.150599  0.444564  0.000752  1
  Mn  Mn5  1  -0.018981  0.611476  0.667460  1
  Mn  Mn6  1  0.854018  0.555115  0.001001  1
  Mn  Mn7  1  0.184399  0.221671  0.667263  1
  Mn  Mn8  1  0.480969  0.111730  0.667403  1
  Mn  Mn9  1  0.354020  0.055237  0.000901  1
  Mn  Mn10  1  0.650690  -0.055277  0.001008  1
  Mn  Mn11  1  0.517276  0.887855  0.335133  1
  Mn  Mn12  1  0.814004  0.777765  0.334930  1
  O  O13  1  -0.027951  0.633951  0.264354  1
  O  O14  1  0.371907  0.628153  0.300069  1
  O  O15  1  0.667043  0.716757  0.266016  1
  O  O16  1  0.167106  0.216928  0.265910  1
  O  O17  1  0.471968  0.133814  0.264413  1
  O  O18  1  0.871605  0.128847  0.299761  1
  O  O19  1  0.039931  -0.038949  0.631295  1
  O  O20  1  0.334619  0.053469  0.597600  1
  O  O21  1  0.640146  -0.029720  0.597507  1
  O  O22  1  0.140106  0.470084  0.597529  1
  O  O23  1  0.539564  0.461540  0.631164  1
  O  O24  1  0.834559  0.553517  0.597698  1
  O  O25  1  0.207579  0.792689  0.965448  1
  O  O26  1  0.504484  0.888296  0.930925  1
  O  O27  1  0.809929  0.803523  0.931130  1
  O  O28  1  0.004215  0.387905  0.930796  1
  O  O29  1  0.310066  0.303612  0.930959  1
  O  O30  1  0.707724  0.292985  0.966046  1
  O  O31  1  0.124618  -0.125484  0.700137  1
  O  O32  1  0.330546  0.278500  0.737472  1
  O  O33  1  0.525442  -0.136034  0.737445  1
  O  O34  1  0.025440  0.363399  0.737418  1
  O  O35  1  0.624075  0.375258  0.700126  1
  O  O36  1  0.830590  0.778617  0.737487  1
  O  O37  1  0.000512  0.609863  0.071313  1
  O  O38  1  0.195377  0.196960  0.070865  1
  O  O39  1  0.794149  0.208442  0.034385  1
  O  O40  1  0.294183  0.709155  0.033883  1
  O  O41  1  0.500385  0.109517  0.071386  1
  O  O42  1  0.695595  0.697168  0.071050  1
  O  O43  1  -0.139810  0.532820  0.405734  1
  O  O44  1  0.456828  0.538623  0.368494  1
  O  O45  1  0.664060  0.947022  0.404584  1
  O  O46  1  0.163979  0.446962  0.404531  1
  O  O47  1  0.360238  0.032914  0.405862  1
  O  O48  1  0.956567  0.039291  0.368079  1
