# generated using pymatgen
data_MnO3
_symmetry_space_group_name_H-M   'P 1'
_cell_length_a   9.75434367
_cell_length_b   16.91664903
_cell_length_c   9.40526679
_cell_angle_alpha   90.00000000
_cell_angle_beta   120.67232144
_cell_angle_gamma   90.00000000
_symmetry_Int_Tables_number   1
_chemical_formula_structural   MnO3
_chemical_formula_sum   'Mn32 O96'
_cell_volume   1334.84812533
_cell_formula_units_Z   32
loop_
 _symmetry_equiv_pos_site_id
 _symmetry_equiv_pos_as_xyz
  1  'x, y, z'
loop_
 _atom_site_type_symbol
 _atom_site_label
 _atom_site_symmetry_multiplicity
 _atom_site_fract_x
 _atom_site_fract_y
 _atom_site_fract_z
 _atom_site_occupancy
  Mn  Mn1  1  0.000000  0.083818  0.000000  1
  Mn  Mn2  1  0.000000  0.083818  0.500000  1
  Mn  Mn3  1  0.000000  0.583818  0.000000  1
  Mn  Mn4  1  0.000000  0.583818  0.500000  1
  Mn  Mn5  1  0.500000  0.083818  0.000000  1
  Mn  Mn6  1  0.500000  0.083818  0.500000  1
  Mn  Mn7  1  0.500000  0.583818  0.000000  1
  Mn  Mn8  1  0.500000  0.583818  0.500000  1
  Mn  Mn9  1  0.000000  0.416182  0.000000  1
  Mn  Mn10  1  0.000000  0.416182  0.500000  1
  Mn  Mn11  1  0.000000  0.916182  0.000000  1
  Mn  Mn12  1  0.000000  0.916182  0.500000  1
  Mn  Mn13  1  0.500000  0.416182  0.000000  1
  Mn  Mn14  1  0.500000  0.416182  0.500000  1
  Mn  Mn15  1  0.500000  0.916182  0.000000  1
  Mn  Mn16  1  0.500000  0.916182  0.500000  1
  Mn  Mn17  1  0.250000  0.333818  0.000000  1
  Mn  Mn18  1  0.250000  0.333818  0.500000  1
  Mn  Mn19  1  0.250000  0.833818  0.000000  1
  Mn  Mn20  1  0.250000  0.833818  0.500000  1
  Mn  Mn21  1  0.750000  0.333818  0.000000  1
  Mn  Mn22  1  0.750000  0.333818  0.500000  1
  Mn  Mn23  1  0.750000  0.833818  0.000000  1
  Mn  Mn24  1  0.750000  0.833818  0.500000  1
  Mn  Mn25  1  0.250000  0.166182  0.000000  1
  Mn  Mn26  1  0.250000  0.166182  0.500000  1
  Mn  Mn27  1  0.250000  0.666182  0.000000  1
  Mn  Mn28  1  0.250000  0.666182  0.500000  1
  Mn  Mn29  1  0.750000  0.166182  0.000000  1
  Mn  Mn30  1  0.750000  0.166182  0.500000  1
  Mn  Mn31  1  0.750000  0.666182  0.000000  1
  Mn  Mn32  1  0.750000  0.666182  0.500000  1
  O  O33  1  0.117686  0.000000  0.132382  1
  O  O34  1  0.117686  0.000000  0.632382  1
  O  O35  1  0.117686  0.500000  0.132382  1
  O  O36  1  0.117686  0.500000  0.632382  1
  O  O37  1  0.617686  0.000000  0.132382  1
  O  O38  1  0.617686  0.000000  0.632382  1
  O  O39  1  0.617686  0.500000  0.132382  1
  O  O40  1  0.617686  0.500000  0.632382  1
  O  O41  1  0.382314  0.000000  0.367618  1
  O  O42  1  0.382314  0.000000  0.867618  1
  O  O43  1  0.382314  0.500000  0.367618  1
  O  O44  1  0.382314  0.500000  0.867618  1
  O  O45  1  0.882314  0.000000  0.367618  1
  O  O46  1  0.882314  0.000000  0.867618  1
  O  O47  1  0.882314  0.500000  0.367618  1
  O  O48  1  0.882314  0.500000  0.867618  1
  O  O49  1  0.367686  0.250000  0.132382  1
  O  O50  1  0.367686  0.250000  0.632382  1
  O  O51  1  0.367686  0.750000  0.132382  1
  O  O52  1  0.367686  0.750000  0.632382  1
  O  O53  1  0.867686  0.250000  0.132382  1
  O  O54  1  0.867686  0.250000  0.632382  1
  O  O55  1  0.867686  0.750000  0.132382  1
  O  O56  1  0.867686  0.750000  0.632382  1
  O  O57  1  0.132314  0.250000  0.367618  1
  O  O58  1  0.132314  0.250000  0.867618  1
  O  O59  1  0.132314  0.750000  0.367618  1
  O  O60  1  0.132314  0.750000  0.867618  1
  O  O61  1  0.632314  0.250000  0.367618  1
  O  O62  1  0.632314  0.250000  0.867618  1
  O  O63  1  0.632314  0.750000  0.367618  1
  O  O64  1  0.632314  0.750000  0.867618  1
  O  O65  1  0.147787  0.160158  0.119824  1
  O  O66  1  0.147787  0.160158  0.619824  1
  O  O67  1  0.147787  0.660158  0.119824  1
  O  O68  1  0.147787  0.660158  0.619824  1
  O  O69  1  0.647787  0.160158  0.119824  1
  O  O70  1  0.647787  0.160158  0.619824  1
  O  O71  1  0.647787  0.660158  0.119824  1
  O  O72  1  0.647787  0.660158  0.619824  1
  O  O73  1  0.352213  0.339842  0.380176  1
  O  O74  1  0.352213  0.339842  0.880176  1
  O  O75  1  0.352213  0.839842  0.380176  1
  O  O76  1  0.352213  0.839842  0.880176  1
  O  O77  1  0.852213  0.339842  0.380176  1
  O  O78  1  0.852213  0.339842  0.880176  1
  O  O79  1  0.852213  0.839842  0.380176  1
  O  O80  1  0.852213  0.839842  0.880176  1
  O  O81  1  0.352213  0.160158  0.380176  1
  O  O82  1  0.352213  0.160158  0.880176  1
  O  O83  1  0.352213  0.660158  0.380176  1
  O  O84  1  0.352213  0.660158  0.880176  1
  O  O85  1  0.852213  0.160158  0.380176  1
  O  O86  1  0.852213  0.160158  0.880176  1
  O  O87  1  0.852213  0.660158  0.380176  1
  O  O88  1  0.852213  0.660158  0.880176  1
  O  O89  1  0.147787  0.339842  0.119824  1
  O  O90  1  0.147787  0.339842  0.619824  1
  O  O91  1  0.147787  0.839842  0.119824  1
  O  O92  1  0.147787  0.839842  0.619824  1
  O  O93  1  0.647787  0.339842  0.119824  1
  O  O94  1  0.647787  0.339842  0.619824  1
  O  O95  1  0.647787  0.839842  0.119824  1
  O  O96  1  0.647787  0.839842  0.619824  1
  O  O97  1  0.397787  0.410158  0.119824  1
  O  O98  1  0.397787  0.410158  0.619824  1
  O  O99  1  0.397787  0.910158  0.119824  1
  O  O100  1  0.397787  0.910158  0.619824  1
  O  O101  1  0.897787  0.410158  0.119824  1
  O  O102  1  0.897787  0.410158  0.619824  1
  O  O103  1  0.897787  0.910158  0.119824  1
  O  O104  1  0.897787  0.910158  0.619824  1
  O  O105  1  0.102213  0.089842  0.380176  1
  O  O106  1  0.102213  0.089842  0.880176  1
  O  O107  1  0.102213  0.589842  0.380176  1
  O  O108  1  0.102213  0.589842  0.880176  1
  O  O109  1  0.602213  0.089842  0.380176  1
  O  O110  1  0.602213  0.089842  0.880176  1
  O  O111  1  0.602213  0.589842  0.380176  1
  O  O112  1  0.602213  0.589842  0.880176  1
  O  O113  1  0.102213  0.410158  0.380176  1
  O  O114  1  0.102213  0.410158  0.880176  1
  O  O115  1  0.102213  0.910158  0.380176  1
  O  O116  1  0.102213  0.910158  0.880176  1
  O  O117  1  0.602213  0.410158  0.380176  1
  O  O118  1  0.602213  0.410158  0.880176  1
  O  O119  1  0.602213  0.910158  0.380176  1
  O  O120  1  0.602213  0.910158  0.880176  1
  O  O121  1  0.397787  0.089842  0.119824  1
  O  O122  1  0.397787  0.089842  0.619824  1
  O  O123  1  0.397787  0.589842  0.119824  1
  O  O124  1  0.397787  0.589842  0.619824  1
  O  O125  1  0.897787  0.089842  0.119824  1
  O  O126  1  0.897787  0.089842  0.619824  1
  O  O127  1  0.897787  0.589842  0.119824  1
  O  O128  1  0.897787  0.589842  0.619824  1
