# generated using pymatgen
data_LiMn2O6
_symmetry_space_group_name_H-M   'P 1'
_cell_length_a   10.30158238
_cell_length_b   17.08299253
_cell_length_c   9.33676850
_cell_angle_alpha   90.00000000
_cell_angle_beta   110.35650002
_cell_angle_gamma   90.00000000
_symmetry_Int_Tables_number   1
_chemical_formula_structural   LiMn2O6
_chemical_formula_sum   'Li16 Mn32 O96'
_cell_volume   1540.48415097
_cell_formula_units_Z   16
loop_
 _symmetry_equiv_pos_site_id
 _symmetry_equiv_pos_as_xyz
  1  'x, y, z'
loop_
 _atom_site_type_symbol
 _atom_site_label
 _atom_site_symmetry_multiplicity
 _atom_site_fract_x
 _atom_site_fract_y
 _atom_site_fract_z
 _atom_site_occupancy
  Li  Li1  1  0.250000  0.000000  0.000000  1
  Li  Li2  1  0.250000  0.000000  0.500000  1
  Li  Li3  1  0.250000  0.500000  0.000000  1
  Li  Li4  1  0.250000  0.500000  0.500000  1
  Li  Li5  1  0.750000  0.000000  0.000000  1
  Li  Li6  1  0.750000  0.000000  0.500000  1
  Li  Li7  1  0.750000  0.500000  0.000000  1
  Li  Li8  1  0.750000  0.500000  0.500000  1
  Li  Li9  1  0.000000  0.250000  0.000000  1
  Li  Li10  1  1.000000  0.250000  0.500000  1
  Li  Li11  1  0.000000  0.750000  0.000000  1
  Li  Li12  1  1.000000  0.750000  0.500000  1
  Li  Li13  1  0.500000  0.250000  0.000000  1
  Li  Li14  1  0.500000  0.250000  0.500000  1
  Li  Li15  1  0.500000  0.750000  0.000000  1
  Li  Li16  1  0.500000  0.750000  0.500000  1
  Mn  Mn17  1  0.250000  0.341011  0.000000  1
  Mn  Mn18  1  0.250000  0.341011  0.500000  1
  Mn  Mn19  1  0.250000  0.841011  0.000000  1
  Mn  Mn20  1  0.250000  0.841011  0.500000  1
  Mn  Mn21  1  0.750000  0.341011  0.000000  1
  Mn  Mn22  1  0.750000  0.341011  0.500000  1
  Mn  Mn23  1  0.750000  0.841011  0.000000  1
  Mn  Mn24  1  0.750000  0.841011  0.500000  1
  Mn  Mn25  1  0.250000  0.158989  0.000000  1
  Mn  Mn26  1  0.250000  0.158989  0.500000  1
  Mn  Mn27  1  0.250000  0.658989  0.000000  1
  Mn  Mn28  1  0.250000  0.658989  0.500000  1
  Mn  Mn29  1  0.750000  0.158989  0.000000  1
  Mn  Mn30  1  0.750000  0.158989  0.500000  1
  Mn  Mn31  1  0.750000  0.658989  0.000000  1
  Mn  Mn32  1  0.750000  0.658989  0.500000  1
  Mn  Mn33  1  0.000000  0.091011  0.000000  1
  Mn  Mn34  1  1.000000  0.091011  0.500000  1
  Mn  Mn35  1  0.000000  0.591011  0.000000  1
  Mn  Mn36  1  1.000000  0.591011  0.500000  1
  Mn  Mn37  1  0.500000  0.091011  0.000000  1
  Mn  Mn38  1  0.500000  0.091011  0.500000  1
  Mn  Mn39  1  0.500000  0.591011  0.000000  1
  Mn  Mn40  1  0.500000  0.591011  0.500000  1
  Mn  Mn41  1  0.000000  0.408989  0.000000  1
  Mn  Mn42  1  1.000000  0.408989  0.500000  1
  Mn  Mn43  1  0.000000  0.908989  0.000000  1
  Mn  Mn44  1  1.000000  0.908989  0.500000  1
  Mn  Mn45  1  0.500000  0.408989  0.000000  1
  Mn  Mn46  1  0.500000  0.408989  0.500000  1
  Mn  Mn47  1  0.500000  0.908989  0.000000  1
  Mn  Mn48  1  0.500000  0.908989  0.500000  1
  O  O49  1  0.111328  0.000000  0.100160  1
  O  O50  1  0.111328  0.000000  0.600160  1
  O  O51  1  0.111328  0.500000  0.100160  1
  O  O52  1  0.111328  0.500000  0.600160  1
  O  O53  1  0.611328  0.000000  0.100160  1
  O  O54  1  0.611328  0.000000  0.600160  1
  O  O55  1  0.611328  0.500000  0.100160  1
  O  O56  1  0.611328  0.500000  0.600160  1
  O  O57  1  0.388672  0.000000  0.399840  1
  O  O58  1  0.388672  0.000000  0.899840  1
  O  O59  1  0.388672  0.500000  0.399840  1
  O  O60  1  0.388672  0.500000  0.899840  1
  O  O61  1  0.888672  0.000000  0.399840  1
  O  O62  1  0.888672  0.000000  0.899840  1
  O  O63  1  0.888672  0.500000  0.399840  1
  O  O64  1  0.888672  0.500000  0.899840  1
  O  O65  1  0.377072  0.412763  0.107985  1
  O  O66  1  0.377072  0.412763  0.607985  1
  O  O67  1  0.377072  0.912763  0.107985  1
  O  O68  1  0.377072  0.912763  0.607985  1
  O  O69  1  0.877072  0.412763  0.107985  1
  O  O70  1  0.877072  0.412763  0.607985  1
  O  O71  1  0.877072  0.912763  0.107985  1
  O  O72  1  0.877072  0.912763  0.607985  1
  O  O73  1  0.122928  0.087237  0.392015  1
  O  O74  1  0.122928  0.087237  0.892015  1
  O  O75  1  0.122928  0.587237  0.392015  1
  O  O76  1  0.122928  0.587237  0.892015  1
  O  O77  1  0.622928  0.087237  0.392015  1
  O  O78  1  0.622928  0.087237  0.892015  1
  O  O79  1  0.622928  0.587237  0.392015  1
  O  O80  1  0.622928  0.587237  0.892015  1
  O  O81  1  0.122928  0.412763  0.392015  1
  O  O82  1  0.122928  0.412763  0.892015  1
  O  O83  1  0.122928  0.912763  0.392015  1
  O  O84  1  0.122928  0.912763  0.892015  1
  O  O85  1  0.622928  0.412763  0.392015  1
  O  O86  1  0.622928  0.412763  0.892015  1
  O  O87  1  0.622928  0.912763  0.392015  1
  O  O88  1  0.622928  0.912763  0.892015  1
  O  O89  1  0.377072  0.087237  0.107985  1
  O  O90  1  0.377072  0.087237  0.607985  1
  O  O91  1  0.377072  0.587237  0.107985  1
  O  O92  1  0.377072  0.587237  0.607985  1
  O  O93  1  0.877072  0.087237  0.107985  1
  O  O94  1  0.877072  0.087237  0.607985  1
  O  O95  1  0.877072  0.587237  0.107985  1
  O  O96  1  0.877072  0.587237  0.607985  1
  O  O97  1  0.361328  0.250000  0.100160  1
  O  O98  1  0.361328  0.250000  0.600160  1
  O  O99  1  0.361328  0.750000  0.100160  1
  O  O100  1  0.361328  0.750000  0.600160  1
  O  O101  1  0.861328  0.250000  0.100160  1
  O  O102  1  0.861328  0.250000  0.600160  1
  O  O103  1  0.861328  0.750000  0.100160  1
  O  O104  1  0.861328  0.750000  0.600160  1
  O  O105  1  0.138672  0.250000  0.399840  1
  O  O106  1  0.138672  0.250000  0.899840  1
  O  O107  1  0.138672  0.750000  0.399840  1
  O  O108  1  0.138672  0.750000  0.899840  1
  O  O109  1  0.638672  0.250000  0.399840  1
  O  O110  1  0.638672  0.250000  0.899840  1
  O  O111  1  0.638672  0.750000  0.399840  1
  O  O112  1  0.638672  0.750000  0.899840  1
  O  O113  1  0.127072  0.162763  0.107985  1
  O  O114  1  0.127072  0.162763  0.607985  1
  O  O115  1  0.127072  0.662763  0.107985  1
  O  O116  1  0.127072  0.662763  0.607985  1
  O  O117  1  0.627072  0.162763  0.107985  1
  O  O118  1  0.627072  0.162763  0.607985  1
  O  O119  1  0.627072  0.662763  0.107985  1
  O  O120  1  0.627072  0.662763  0.607985  1
  O  O121  1  0.372928  0.337237  0.392015  1
  O  O122  1  0.372928  0.337237  0.892015  1
  O  O123  1  0.372928  0.837237  0.392015  1
  O  O124  1  0.372928  0.837237  0.892015  1
  O  O125  1  0.872928  0.337237  0.392015  1
  O  O126  1  0.872928  0.337237  0.892015  1
  O  O127  1  0.872928  0.837237  0.392015  1
  O  O128  1  0.872928  0.837237  0.892015  1
  O  O129  1  0.372928  0.162763  0.392015  1
  O  O130  1  0.372928  0.162763  0.892015  1
  O  O131  1  0.372928  0.662763  0.392015  1
  O  O132  1  0.372928  0.662763  0.892015  1
  O  O133  1  0.872928  0.162763  0.392015  1
  O  O134  1  0.872928  0.162763  0.892015  1
  O  O135  1  0.872928  0.662763  0.392015  1
  O  O136  1  0.872928  0.662763  0.892015  1
  O  O137  1  0.127072  0.337237  0.107985  1
  O  O138  1  0.127072  0.337237  0.607985  1
  O  O139  1  0.127072  0.837237  0.107985  1
  O  O140  1  0.127072  0.837237  0.607985  1
  O  O141  1  0.627072  0.337237  0.107985  1
  O  O142  1  0.627072  0.337237  0.607985  1
  O  O143  1  0.627072  0.837237  0.107985  1
  O  O144  1  0.627072  0.837237  0.607985  1
