# generated using pymatgen
data_MnO3
_symmetry_space_group_name_H-M   'P 1'
_cell_length_a   4.98555149
_cell_length_b   8.19646206
_cell_length_c   4.80053762
_cell_angle_alpha   90.00000000
_cell_angle_beta   113.28764147
_cell_angle_gamma   90.00000000
_symmetry_Int_Tables_number   1
_chemical_formula_structural   MnO3
_chemical_formula_sum   'Mn4 O12'
_cell_volume   180.18708288
_cell_formula_units_Z   4
loop_
 _symmetry_equiv_pos_site_id
 _symmetry_equiv_pos_as_xyz
  1  'x, y, z'
loop_
 _atom_site_type_symbol
 _atom_site_label
 _atom_site_symmetry_multiplicity
 _atom_site_fract_x
 _atom_site_fract_y
 _atom_site_fract_z
 _atom_site_occupancy
  Mn  Mn1  1  0.000000  0.179577  -0.000000  1
  Mn  Mn2  1  0.000000  0.820423  -0.000000  1
  Mn  Mn3  1  0.500000  0.679577  -0.000000  1
  Mn  Mn4  1  0.500000  0.320423  -0.000000  1
  O  O5  1  0.189876  0.000000  0.239511  1
  O  O6  1  0.810124  0.000000  0.760489  1
  O  O7  1  0.689876  0.500000  0.239511  1
  O  O8  1  0.310124  0.500000  0.760489  1
  O  O9  1  0.275113  0.310928  0.229153  1
  O  O10  1  0.724887  0.689072  0.770847  1
  O  O11  1  0.724887  0.310928  0.770847  1
  O  O12  1  0.275113  0.689072  0.229153  1
  O  O13  1  0.775113  0.810928  0.229153  1
  O  O14  1  0.224887  0.189072  0.770847  1
  O  O15  1  0.224887  0.810928  0.770847  1
  O  O16  1  0.775113  0.189072  0.229153  1
