# generated using pymatgen
data_MnO3
_symmetry_space_group_name_H-M   'P 1'
_cell_length_a   5.25607235
_cell_length_b   8.94742467
_cell_length_c   4.08457357
_cell_angle_alpha   90.00000000
_cell_angle_beta   100.00309858
_cell_angle_gamma   90.00000000
_symmetry_Int_Tables_number   1
_chemical_formula_structural   MnO3
_chemical_formula_sum   'Mn4 O12'
_cell_volume   189.17050550
_cell_formula_units_Z   4
loop_
 _symmetry_equiv_pos_site_id
 _symmetry_equiv_pos_as_xyz
  1  'x, y, z'
loop_
 _atom_site_type_symbol
 _atom_site_label
 _atom_site_symmetry_multiplicity
 _atom_site_fract_x
 _atom_site_fract_y
 _atom_site_fract_z
 _atom_site_occupancy
  Mn  Mn1  1  0.000000  0.199973  0.000000  1
  Mn  Mn2  1  0.000000  0.800027  0.000000  1
  Mn  Mn3  1  0.500000  0.699973  0.000000  1
  Mn  Mn4  1  0.500000  0.300027  0.000000  1
  O  O5  1  0.943560  0.000000  0.343749  1
  O  O6  1  0.056440  0.000000  0.656251  1
  O  O7  1  0.443560  0.500000  0.343749  1
  O  O8  1  0.556440  0.500000  0.656251  1
  O  O9  1  0.834486  0.328577  0.229675  1
  O  O10  1  0.165514  0.671423  0.770325  1
  O  O11  1  0.165514  0.328577  0.770325  1
  O  O12  1  0.834486  0.671423  0.229675  1
  O  O13  1  0.334486  0.828577  0.229675  1
  O  O14  1  0.665514  0.171423  0.770325  1
  O  O15  1  0.665514  0.828577  0.770325  1
  O  O16  1  0.334486  0.171423  0.229675  1
