# generated using pymatgen
data_LiMn2O6
_symmetry_space_group_name_H-M   'P 1'
_cell_length_a   4.98717877
_cell_length_b   4.98717877
_cell_length_c   4.66838425
_cell_angle_alpha   79.65142793
_cell_angle_beta   100.34857207
_cell_angle_gamma   62.18259999
_symmetry_Int_Tables_number   1
_chemical_formula_structural   LiMn2O6
_chemical_formula_sum   'Li1 Mn2 O6'
_cell_volume   96.28025944
_cell_formula_units_Z   1
loop_
 _symmetry_equiv_pos_site_id
 _symmetry_equiv_pos_as_xyz
  1  'x, y, z'
loop_
 _atom_site_type_symbol
 _atom_site_label
 _atom_site_symmetry_multiplicity
 _atom_site_fract_x
 _atom_site_fract_y
 _atom_site_fract_z
 _atom_site_occupancy
  Li  Li1  1  0.500000  0.500000  0.000000  1
  Mn  Mn2  1  0.817978  0.817978  0.000000  1
  Mn  Mn3  1  0.182022  0.182022  0.000000  1
  O  O4  1  0.777344  0.222656  0.799679  1
  O  O5  1  0.222656  0.777344  0.200321  1
  O  O6  1  0.420329  0.928618  0.784030  1
  O  O7  1  0.579671  0.071382  0.215970  1
  O  O8  1  0.928618  0.420329  0.215970  1
  O  O9  1  0.071382  0.579671  0.784030  1
