# generated using pymatgen
data_MnO3
_symmetry_space_group_name_H-M   'P 1'
_cell_length_a   5.14564981
_cell_length_b   9.70959349
_cell_length_c   4.70042548
_cell_angle_alpha   90.00000000
_cell_angle_beta   98.37805171
_cell_angle_gamma   90.00000000
_symmetry_Int_Tables_number   1
_chemical_formula_structural   MnO3
_chemical_formula_sum   'Mn4 O12'
_cell_volume   232.33724965
_cell_formula_units_Z   4
loop_
 _symmetry_equiv_pos_site_id
 _symmetry_equiv_pos_as_xyz
  1  'x, y, z'
loop_
 _atom_site_type_symbol
 _atom_site_label
 _atom_site_symmetry_multiplicity
 _atom_site_fract_x
 _atom_site_fract_y
 _atom_site_fract_z
 _atom_site_occupancy
  Mn  Mn1  1  0.063213  0.204417  -0.000287  1
  Mn  Mn2  1  0.063213  0.795583  -0.000287  1
  Mn  Mn3  1  0.563213  0.704417  -0.000287  1
  Mn  Mn4  1  0.563213  0.295583  -0.000287  1
  O  O5  1  -0.010852  0.000000  0.115262  1
  O  O6  1  0.489148  0.500000  0.115262  1
  O  O7  1  0.398377  0.192097  0.225037  1
  O  O8  1  0.398377  0.807903  0.225037  1
  O  O9  1  0.898377  0.692097  0.225037  1
  O  O10  1  0.898377  0.307903  0.225037  1
  O  O11  1  0.129462  0.000000  0.891432  1
  O  O12  1  0.629462  0.500000  0.891432  1
  O  O13  1  0.229154  0.305795  0.771903  1
  O  O14  1  0.229154  0.694205  0.771903  1
  O  O15  1  0.729154  0.805795  0.771903  1
  O  O16  1  0.729154  0.194205  0.771903  1
