# generated using pymatgen
data_LiMn2O6
_symmetry_space_group_name_H-M   'P 1'
_cell_length_a   4.94110872
_cell_length_b   8.25203938
_cell_length_c   5.22687686
_cell_angle_alpha   90.00000000
_cell_angle_beta   110.02296896
_cell_angle_gamma   90.00000000
_symmetry_Int_Tables_number   1
_chemical_formula_structural   LiMn2O6
_chemical_formula_sum   'Li2 Mn4 O12'
_cell_volume   200.23978945
_cell_formula_units_Z   2
loop_
 _symmetry_equiv_pos_site_id
 _symmetry_equiv_pos_as_xyz
  1  'x, y, z'
loop_
 _atom_site_type_symbol
 _atom_site_label
 _atom_site_symmetry_multiplicity
 _atom_site_fract_x
 _atom_site_fract_y
 _atom_site_fract_z
 _atom_site_occupancy
  Li  Li1  1  0.165445  0.500000  0.344025  1
  Li  Li2  1  0.665445  0.000000  0.344025  1
  Mn  Mn3  1  0.048033  0.176869  0.964493  1
  Mn  Mn4  1  0.048033  0.823131  0.964493  1
  Mn  Mn5  1  0.548033  0.676869  0.964493  1
  Mn  Mn6  1  0.548033  0.323131  0.964493  1
  O  O7  1  0.234080  0.000000  0.158354  1
  O  O8  1  0.734080  0.500000  0.158354  1
  O  O9  1  0.300340  0.314969  0.169719  1
  O  O10  1  0.300340  0.685031  0.169719  1
  O  O11  1  0.800340  0.814969  0.169719  1
  O  O12  1  0.800340  0.185031  0.169719  1
  O  O13  1  0.865649  0.000000  0.736817  1
  O  O14  1  0.365649  0.500000  0.736817  1
  O  O15  1  0.269089  0.200698  0.746190  1
  O  O16  1  0.269089  0.799302  0.746190  1
  O  O17  1  0.769089  0.700698  0.746190  1
  O  O18  1  0.769089  0.299302  0.746190  1
