# generated using pymatgen
data_MnO3
_symmetry_space_group_name_H-M   'P 1'
_cell_length_a   9.15585385
_cell_length_b   5.12618740
_cell_length_c   11.03586634
_cell_angle_alpha   96.55875386
_cell_angle_beta   79.16446031
_cell_angle_gamma   92.92037547
_symmetry_Int_Tables_number   1
_chemical_formula_structural   MnO3
_chemical_formula_sum   'Mn12 O36'
_cell_volume   505.16919393
_cell_formula_units_Z   12
loop_
 _symmetry_equiv_pos_site_id
 _symmetry_equiv_pos_as_xyz
  1  'x, y, z'
loop_
 _atom_site_type_symbol
 _atom_site_label
 _atom_site_symmetry_multiplicity
 _atom_site_fract_x
 _atom_site_fract_y
 _atom_site_fract_z
 _atom_site_occupancy
  Mn  Mn1  1  0.660506  0.645916  0.668073  1
  Mn  Mn2  1  0.339403  0.352637  0.335334  1
  Mn  Mn3  1  -0.004939  0.320106  0.333196  1
  Mn  Mn4  1  0.171714  0.518119  0.000515  1
  Mn  Mn5  1  0.004773  0.679679  0.667517  1
  Mn  Mn6  1  0.828230  0.483165  0.001041  1
  Mn  Mn7  1  0.161477  0.144382  0.667207  1
  Mn  Mn8  1  0.504830  0.180086  0.667566  1
  Mn  Mn9  1  0.328135  -0.016636  0.001099  1
  Mn  Mn10  1  0.671716  0.017763  0.000540  1
  Mn  Mn11  1  0.495011  0.819510  0.333069  1
  Mn  Mn12  1  0.839431  0.853445  0.335664  1
  O  O13  1  -0.015243  0.631377  0.233272  1
  O  O14  1  0.372426  0.628596  0.251494  1
  O  O15  1  0.678540  0.709116  0.233111  1
  O  O16  1  0.178382  0.209947  0.232757  1
  O  O17  1  0.484870  0.130745  0.233189  1
  O  O18  1  0.872026  0.129437  0.251909  1
  O  O19  1  0.038405  -0.043691  0.584574  1
  O  O20  1  0.344896  0.037875  0.566031  1
  O  O21  1  0.651217  -0.039926  0.566653  1
  O  O22  1  0.151078  0.459380  0.566376  1
  O  O23  1  0.538449  0.457163  0.584777  1
  O  O24  1  0.844163  0.538628  0.566768  1
  O  O25  1  0.205408  0.796350  0.918409  1
  O  O26  1  0.511253  0.874040  0.899675  1
  O  O27  1  0.817960  0.796197  0.899820  1
  O  O28  1  0.011557  0.374564  0.899403  1
  O  O29  1  0.317890  0.296339  0.899608  1
  O  O30  1  0.705473  0.295864  0.918356  1
  O  O31  1  0.127536  -0.131789  0.750015  1
  O  O32  1  0.321241  0.290281  0.768545  1
  O  O33  1  0.514855  -0.131348  0.768628  1
  O  O34  1  0.015501  0.367792  0.768164  1
  O  O35  1  0.626458  0.369562  0.750789  1
  O  O36  1  0.821237  0.790197  0.768789  1
  O  O37  1  -0.011579  0.627628  0.102177  1
  O  O38  1  0.181775  0.205174  0.101670  1
  O  O39  1  0.794864  0.204768  0.083009  1
  O  O40  1  0.294574  0.705511  0.083342  1
  O  O41  1  0.488508  0.127503  0.102114  1
  O  O42  1  0.681854  0.704392  0.102014  1
  O  O43  1  -0.150976  0.540209  0.435856  1
  O  O44  1  0.462291  0.542886  0.416731  1
  O  O45  1  0.655798  0.961231  0.435692  1
  O  O46  1  0.155873  0.461202  0.435483  1
  O  O47  1  0.348477  0.038994  0.435183  1
  O  O48  1  0.962677  0.043633  0.416794  1
