# generated using pymatgen
data_LiMn2O6
_symmetry_space_group_name_H-M   'P 1'
_cell_length_a   4.92871669
_cell_length_b   4.92871669
_cell_length_c   5.28700000
_cell_angle_alpha   82.21086980
_cell_angle_beta   97.78913020
_cell_angle_gamma   60.11122019
_symmetry_Int_Tables_number   1
_chemical_formula_structural   LiMn2O6
_chemical_formula_sum   'Li1 Mn2 O6'
_cell_volume   107.19648308
_cell_formula_units_Z   1
loop_
 _symmetry_equiv_pos_site_id
 _symmetry_equiv_pos_as_xyz
  1  'x, y, z'
loop_
 _atom_site_type_symbol
 _atom_site_label
 _atom_site_symmetry_multiplicity
 _atom_site_fract_x
 _atom_site_fract_y
 _atom_site_fract_z
 _atom_site_occupancy
  Li  Li1  1  0.500000  0.500000  0.000000  1
  Mn  Mn2  1  0.167080  0.167080  0.000000  1
  Mn  Mn3  1  0.832920  0.832920  0.000000  1
  O  O4  1  0.166667  0.833333  0.662600  1
  O  O5  1  0.499967  0.166633  0.662600  1
  O  O6  1  0.833367  0.500033  0.662600  1
  O  O7  1  0.333300  0.666700  0.337400  1
  O  O8  1  0.666600  0.000000  0.337400  1
  O  O9  1  1.000000  0.333400  0.337400  1
