# generated using pymatgen
data_LiMn2O6
_symmetry_space_group_name_H-M   'P 1'
_cell_length_a   5.32585763
_cell_length_b   9.05433666
_cell_length_c   3.88312155
_cell_angle_alpha   90.00000000
_cell_angle_beta   99.79214193
_cell_angle_gamma   90.00000000
_symmetry_Int_Tables_number   1
_chemical_formula_structural   LiMn2O6
_chemical_formula_sum   'Li2 Mn4 O12'
_cell_volume   184.52427167
_cell_formula_units_Z   2
loop_
 _symmetry_equiv_pos_site_id
 _symmetry_equiv_pos_as_xyz
  1  'x, y, z'
loop_
 _atom_site_type_symbol
 _atom_site_label
 _atom_site_symmetry_multiplicity
 _atom_site_fract_x
 _atom_site_fract_y
 _atom_site_fract_z
 _atom_site_occupancy
  Li  Li1  1  -0.000000  0.500000  -0.000000  1
  Li  Li2  1  0.500000  -0.000000  -0.000000  1
  Mn  Mn3  1  0.000000  0.186482  0.000000  1
  Mn  Mn4  1  0.000000  0.813518  0.000000  1
  Mn  Mn5  1  0.500000  0.686482  0.000000  1
  Mn  Mn6  1  0.500000  0.313518  0.000000  1
  O  O7  1  0.933072  -0.000000  0.327822  1
  O  O8  1  0.066928  -0.000000  0.672178  1
  O  O9  1  0.433072  0.500000  0.327822  1
  O  O10  1  0.566928  0.500000  0.672178  1
  O  O11  1  0.842938  0.333359  0.221154  1
  O  O12  1  0.157062  0.666641  0.778846  1
  O  O13  1  0.157062  0.333359  0.778846  1
  O  O14  1  0.842938  0.666641  0.221154  1
  O  O15  1  0.342938  0.833359  0.221154  1
  O  O16  1  0.657062  0.166641  0.778846  1
  O  O17  1  0.657062  0.833359  0.778846  1
  O  O18  1  0.342938  0.166641  0.221154  1
