# generated using pymatgen
data_MnO3
_symmetry_space_group_name_H-M   'P 1'
_cell_length_a   5.41618167
_cell_length_b   5.41618167
_cell_length_c   3.75449274
_cell_angle_alpha   78.36820415
_cell_angle_beta   101.63179585
_cell_angle_gamma   61.32734418
_symmetry_Int_Tables_number   1
_chemical_formula_structural   MnO3
_chemical_formula_sum   'Mn2 O6'
_cell_volume   88.76037343
_cell_formula_units_Z   2
loop_
 _symmetry_equiv_pos_site_id
 _symmetry_equiv_pos_as_xyz
  1  'x, y, z'
loop_
 _atom_site_type_symbol
 _atom_site_label
 _atom_site_symmetry_multiplicity
 _atom_site_fract_x
 _atom_site_fract_y
 _atom_site_fract_z
 _atom_site_occupancy
  Mn  Mn1  1  0.836848  0.836848  0.000000  1
  Mn  Mn2  1  0.163152  0.163152  0.000000  1
  O  O3  1  0.057600  0.942400  0.705208  1
  O  O4  1  0.942400  0.057600  0.294792  1
  O  O5  1  0.771975  0.615322  0.698637  1
  O  O6  1  0.228025  0.384678  0.301363  1
  O  O7  1  0.615322  0.771975  0.301363  1
  O  O8  1  0.384678  0.228025  0.698637  1
