# generated using pymatgen
data_MnO3
_symmetry_space_group_name_H-M   'P 1'
_cell_length_a   5.02747342
_cell_length_b   5.02747342
_cell_length_c   5.09472496
_cell_angle_alpha   80.16611584
_cell_angle_beta   99.83388416
_cell_angle_gamma   54.66216266
_symmetry_Int_Tables_number   1
_chemical_formula_structural   MnO3
_chemical_formula_sum   'Mn2 O6'
_cell_volume   97.50778235
_cell_formula_units_Z   2
loop_
 _symmetry_equiv_pos_site_id
 _symmetry_equiv_pos_as_xyz
  1  'x, y, z'
loop_
 _atom_site_type_symbol
 _atom_site_label
 _atom_site_symmetry_multiplicity
 _atom_site_fract_x
 _atom_site_fract_y
 _atom_site_fract_z
 _atom_site_occupancy
  Mn  Mn1  1  0.839789  0.839789  0.000000  1
  Mn  Mn2  1  0.160211  0.160211  0.000000  1
  O  O3  1  0.782107  0.217893  0.766169  1
  O  O4  1  0.217893  0.782107  0.233831  1
  O  O5  1  0.453202  0.888563  0.817471  1
  O  O6  1  0.546798  0.111437  0.182529  1
  O  O7  1  0.888563  0.453202  0.182529  1
  O  O8  1  0.111437  0.546798  0.817471  1
