# generated using pymatgen
data_MnO3
_symmetry_space_group_name_H-M   'P 1'
_cell_length_a   5.06945762
_cell_length_b   8.46440718
_cell_length_c   4.79068654
_cell_angle_alpha   90.00000000
_cell_angle_beta   112.97450775
_cell_angle_gamma   90.00000000
_symmetry_Int_Tables_number   1
_chemical_formula_structural   MnO3
_chemical_formula_sum   'Mn4 O12'
_cell_volume   189.26218585
_cell_formula_units_Z   4
loop_
 _symmetry_equiv_pos_site_id
 _symmetry_equiv_pos_as_xyz
  1  'x, y, z'
loop_
 _atom_site_type_symbol
 _atom_site_label
 _atom_site_symmetry_multiplicity
 _atom_site_fract_x
 _atom_site_fract_y
 _atom_site_fract_z
 _atom_site_occupancy
  Mn  Mn1  1  -0.000000  0.171325  -0.000000  1
  Mn  Mn2  1  -0.000000  0.828675  -0.000000  1
  Mn  Mn3  1  0.500000  0.671325  -0.000000  1
  Mn  Mn4  1  0.500000  0.328675  -0.000000  1
  O  O5  1  0.236123  -0.000000  0.213367  1
  O  O6  1  0.763877  -0.000000  0.786633  1
  O  O7  1  0.736123  0.500000  0.213367  1
  O  O8  1  0.263877  0.500000  0.786633  1
  O  O9  1  0.266746  0.324782  0.229081  1
  O  O10  1  0.733254  0.675218  0.770919  1
  O  O11  1  0.733254  0.324782  0.770919  1
  O  O12  1  0.266746  0.675218  0.229081  1
  O  O13  1  0.766746  0.824782  0.229081  1
  O  O14  1  0.233254  0.175218  0.770919  1
  O  O15  1  0.233254  0.824782  0.770919  1
  O  O16  1  0.766746  0.175218  0.229081  1
