# generated using pymatgen
data_LiMn2O6
_symmetry_space_group_name_H-M   'P 1'
_cell_length_a   5.08763044
_cell_length_b   5.08763044
_cell_length_c   3.83836349
_cell_angle_alpha   83.92820857
_cell_angle_beta   96.07179143
_cell_angle_gamma   60.92208763
_symmetry_Int_Tables_number   1
_chemical_formula_structural   LiMn2O6
_chemical_formula_sum   'Li1 Mn2 O6'
_cell_volume   84.91870851
_cell_formula_units_Z   1
loop_
 _symmetry_equiv_pos_site_id
 _symmetry_equiv_pos_as_xyz
  1  'x, y, z'
loop_
 _atom_site_type_symbol
 _atom_site_label
 _atom_site_symmetry_multiplicity
 _atom_site_fract_x
 _atom_site_fract_y
 _atom_site_fract_z
 _atom_site_occupancy
  Li  Li1  1  0.500000  0.500000  -0.000000  1
  Mn  Mn2  1  0.818489  0.818489  -0.000000  1
  Mn  Mn3  1  0.181511  0.181511  -0.000000  1
  O  O4  1  0.068465  0.931535  0.682140  1
  O  O5  1  0.931535  0.068465  0.317860  1
  O  O6  1  0.816711  0.526246  0.771796  1
  O  O7  1  0.183289  0.473754  0.228204  1
  O  O8  1  0.526246  0.816711  0.228204  1
  O  O9  1  0.473754  0.183289  0.771796  1
