# generated using pymatgen
data_LiMn2O6
_symmetry_space_group_name_H-M   'P 1'
_cell_length_a   4.98035915
_cell_length_b   4.98035915
_cell_length_c   5.53095119
_cell_angle_alpha   81.98793853
_cell_angle_beta   98.01206147
_cell_angle_gamma   59.91114908
_symmetry_Int_Tables_number   1
_chemical_formula_structural   LiMn2O6
_chemical_formula_sum   'Li1 Mn2 O6'
_cell_volume   113.98481766
_cell_formula_units_Z   1
loop_
 _symmetry_equiv_pos_site_id
 _symmetry_equiv_pos_as_xyz
  1  'x, y, z'
loop_
 _atom_site_type_symbol
 _atom_site_label
 _atom_site_symmetry_multiplicity
 _atom_site_fract_x
 _atom_site_fract_y
 _atom_site_fract_z
 _atom_site_occupancy
  Li  Li1  1  0.492884  0.507116  0.136158  1
  Mn  Mn2  1  0.765842  0.899126  -0.010799  1
  Mn  Mn3  1  0.100874  0.234158  -0.010799  1
  O  O4  1  0.861971  0.138029  0.171242  1
  O  O5  1  0.495236  0.871723  0.168174  1
  O  O6  1  0.128277  0.504764  0.168174  1
  O  O7  1  0.037538  -0.037538  0.801370  1
  O  O8  1  0.376365  0.258888  0.788239  1
  O  O9  1  -0.258888  0.623635  0.788239  1
