# generated using pymatgen
data_LiMn2O6
_symmetry_space_group_name_H-M   'P 1'
_cell_length_a   5.12537789
_cell_length_b   8.97238500
_cell_length_c   5.12457355
_cell_angle_alpha   90.00000000
_cell_angle_beta   128.94665917
_cell_angle_gamma   90.00000000
_symmetry_Int_Tables_number   1
_chemical_formula_structural   LiMn2O6
_chemical_formula_sum   'Li2 Mn4 O12'
_cell_volume   183.28259053
_cell_formula_units_Z   2
loop_
 _symmetry_equiv_pos_site_id
 _symmetry_equiv_pos_as_xyz
  1  'x, y, z'
loop_
 _atom_site_type_symbol
 _atom_site_label
 _atom_site_symmetry_multiplicity
 _atom_site_fract_x
 _atom_site_fract_y
 _atom_site_fract_z
 _atom_site_occupancy
  Li  Li1  1  0.000000  0.500000  0.000000  1
  Li  Li2  1  0.500000  0.000000  0.000000  1
  Mn  Mn3  1  0.000000  0.165937  0.000000  1
  Mn  Mn4  1  0.000000  0.834063  0.000000  1
  Mn  Mn5  1  0.500000  0.665937  0.000000  1
  Mn  Mn6  1  0.500000  0.334063  0.000000  1
  O  O7  1  0.299268  0.000000  0.228349  1
  O  O8  1  0.700732  0.000000  0.771651  1
  O  O9  1  0.799268  0.500000  0.228349  1
  O  O10  1  0.200732  0.500000  0.771651  1
  O  O11  1  0.322519  0.323561  0.238329  1
  O  O12  1  0.677481  0.676439  0.761671  1
  O  O13  1  0.677481  0.323561  0.761671  1
  O  O14  1  0.322519  0.676439  0.238329  1
  O  O15  1  0.822519  0.823561  0.238329  1
  O  O16  1  0.177481  0.176439  0.761671  1
  O  O17  1  0.177481  0.823561  0.761671  1
  O  O18  1  0.822519  0.176439  0.238329  1
