# generated using pymatgen
data_MnO3
_symmetry_space_group_name_H-M   'P 1'
_cell_length_a   5.06505256
_cell_length_b   8.42785363
_cell_length_c   3.81351783
_cell_angle_alpha   90.00000000
_cell_angle_beta   96.16156268
_cell_angle_gamma   90.00000000
_symmetry_Int_Tables_number   1
_chemical_formula_structural   MnO3
_chemical_formula_sum   'Mn4 O12'
_cell_volume   161.84922056
_cell_formula_units_Z   4
loop_
 _symmetry_equiv_pos_site_id
 _symmetry_equiv_pos_as_xyz
  1  'x, y, z'
loop_
 _atom_site_type_symbol
 _atom_site_label
 _atom_site_symmetry_multiplicity
 _atom_site_fract_x
 _atom_site_fract_y
 _atom_site_fract_z
 _atom_site_occupancy
  Mn  Mn1  1  -0.000000  0.191105  -0.000000  1
  Mn  Mn2  1  -0.000000  0.808895  -0.000000  1
  Mn  Mn3  1  0.500000  0.691105  -0.000000  1
  Mn  Mn4  1  0.500000  0.308895  -0.000000  1
  O  O5  1  0.930391  -0.000000  0.334957  1
  O  O6  1  0.069609  -0.000000  0.665043  1
  O  O7  1  0.430391  0.500000  0.334957  1
  O  O8  1  0.569609  0.500000  0.665043  1
  O  O9  1  0.832572  0.326109  0.241678  1
  O  O10  1  0.167428  0.673891  0.758322  1
  O  O11  1  0.167428  0.326109  0.758322  1
  O  O12  1  0.832572  0.673891  0.241678  1
  O  O13  1  0.332572  0.826109  0.241678  1
  O  O14  1  0.667428  0.173891  0.758322  1
  O  O15  1  0.667428  0.826109  0.758322  1
  O  O16  1  0.332572  0.173891  0.241678  1
