# generated using pymatgen
data_LiMn2O6
_symmetry_space_group_name_H-M   'P 1'
_cell_length_a   4.92549754
_cell_length_b   8.68237829
_cell_length_c   4.72493214
_cell_angle_alpha   90.00000000
_cell_angle_beta   122.55124355
_cell_angle_gamma   90.00000000
_symmetry_Int_Tables_number   1
_chemical_formula_structural   LiMn2O6
_chemical_formula_sum   'Li2 Mn4 O12'
_cell_volume   170.32009203
_cell_formula_units_Z   2
loop_
 _symmetry_equiv_pos_site_id
 _symmetry_equiv_pos_as_xyz
  1  'x, y, z'
loop_
 _atom_site_type_symbol
 _atom_site_label
 _atom_site_symmetry_multiplicity
 _atom_site_fract_x
 _atom_site_fract_y
 _atom_site_fract_z
 _atom_site_occupancy
  Li  Li1  1  -0.000000  0.500000  -0.000000  1
  Li  Li2  1  0.500000  0.000000  -0.000000  1
  Mn  Mn3  1  -0.000000  0.162142  -0.000000  1
  Mn  Mn4  1  -0.000000  0.837858  -0.000000  1
  Mn  Mn5  1  0.500000  0.662142  -0.000000  1
  Mn  Mn6  1  0.500000  0.337858  -0.000000  1
  O  O7  1  0.256778  0.000000  0.243996  1
  O  O8  1  0.743222  0.000000  0.756004  1
  O  O9  1  0.756778  0.500000  0.243996  1
  O  O10  1  0.243222  0.500000  0.756004  1
  O  O11  1  0.301962  0.320155  0.239874  1
  O  O12  1  0.698038  0.679845  0.760126  1
  O  O13  1  0.698038  0.320155  0.760126  1
  O  O14  1  0.301962  0.679845  0.239874  1
  O  O15  1  0.801962  0.820155  0.239874  1
  O  O16  1  0.198038  0.179845  0.760126  1
  O  O17  1  0.198038  0.820155  0.760126  1
  O  O18  1  0.801962  0.179845  0.239874  1
