# generated using pymatgen
data_MnO3
_symmetry_space_group_name_H-M   'P 1'
_cell_length_a   5.50821165
_cell_length_b   5.50821165
_cell_length_c   4.72628043
_cell_angle_alpha   71.45705545
_cell_angle_beta   108.54294455
_cell_angle_gamma   55.75900460
_symmetry_Int_Tables_number   1
_chemical_formula_structural   MnO3
_chemical_formula_sum   'Mn2 O6'
_cell_volume   86.90846305
_cell_formula_units_Z   2
loop_
 _symmetry_equiv_pos_site_id
 _symmetry_equiv_pos_as_xyz
  1  'x, y, z'
loop_
 _atom_site_type_symbol
 _atom_site_label
 _atom_site_symmetry_multiplicity
 _atom_site_fract_x
 _atom_site_fract_y
 _atom_site_fract_z
 _atom_site_occupancy
  Mn  Mn1  1  0.842633  0.842633  -0.000000  1
  Mn  Mn2  1  0.157367  0.157367  -0.000000  1
  O  O3  1  0.653102  0.346898  0.696133  1
  O  O4  1  0.346898  0.653102  0.303867  1
  O  O5  1  0.320632  0.056729  0.699978  1
  O  O6  1  0.679368  -0.056729  0.300022  1
  O  O7  1  0.056729  0.320632  0.300022  1
  O  O8  1  -0.056729  0.679368  0.699978  1
