# generated using pymatgen
data_MnO3
_symmetry_space_group_name_H-M   'P 1'
_cell_length_a   5.01960501
_cell_length_b   5.01960501
_cell_length_c   5.85496260
_cell_angle_alpha   80.53493345
_cell_angle_beta   99.46506655
_cell_angle_gamma   59.82865477
_symmetry_Int_Tables_number   1
_chemical_formula_structural   MnO3
_chemical_formula_sum   'Mn2 O6'
_cell_volume   120.40522211
_cell_formula_units_Z   2
loop_
 _symmetry_equiv_pos_site_id
 _symmetry_equiv_pos_as_xyz
  1  'x, y, z'
loop_
 _atom_site_type_symbol
 _atom_site_label
 _atom_site_symmetry_multiplicity
 _atom_site_fract_x
 _atom_site_fract_y
 _atom_site_fract_z
 _atom_site_occupancy
  Mn  Mn1  1  0.760007  0.891442  0.007338  1
  Mn  Mn2  1  0.108558  0.239993  0.007338  1
  O  O3  1  0.893964  0.106036  0.177376  1
  O  O4  1  0.508540  0.935345  0.199432  1
  O  O5  1  0.064655  0.491460  0.199432  1
  O  O6  1  0.006555  -0.006555  0.828839  1
  O  O7  1  0.356826  0.199005  0.790121  1
  O  O8  1  -0.199005  0.643174  0.790121  1
