# generated using pymatgen
data_LiMn2O6
_symmetry_space_group_name_H-M   'P 1'
_cell_length_a   5.13207502
_cell_length_b   8.96973300
_cell_length_c   5.12706691
_cell_angle_alpha   90.00000000
_cell_angle_beta   129.01222942
_cell_angle_gamma   90.00000000
_symmetry_Int_Tables_number   1
_chemical_formula_structural   LiMn2O6
_chemical_formula_sum   'Li2 Mn4 O12'
_cell_volume   183.38719628
_cell_formula_units_Z   2
loop_
 _symmetry_equiv_pos_site_id
 _symmetry_equiv_pos_as_xyz
  1  'x, y, z'
loop_
 _atom_site_type_symbol
 _atom_site_label
 _atom_site_symmetry_multiplicity
 _atom_site_fract_x
 _atom_site_fract_y
 _atom_site_fract_z
 _atom_site_occupancy
  Li  Li1  1  0.000000  0.500000  0.000000  1
  Li  Li2  1  0.500000  0.000000  0.000000  1
  Mn  Mn3  1  0.000000  0.166038  0.000000  1
  Mn  Mn4  1  0.000000  0.833962  0.000000  1
  Mn  Mn5  1  0.500000  0.666038  0.000000  1
  Mn  Mn6  1  0.500000  0.333962  0.000000  1
  O  O7  1  0.298687  0.000000  0.228486  1
  O  O8  1  0.701313  0.000000  0.771514  1
  O  O9  1  0.798687  0.500000  0.228486  1
  O  O10  1  0.201313  0.500000  0.771514  1
  O  O11  1  0.322955  0.323613  0.238314  1
  O  O12  1  0.677045  0.676387  0.761686  1
  O  O13  1  0.677045  0.323613  0.761686  1
  O  O14  1  0.322955  0.676387  0.238314  1
  O  O15  1  0.822955  0.823613  0.238314  1
  O  O16  1  0.177045  0.176387  0.761686  1
  O  O17  1  0.177045  0.823613  0.761686  1
  O  O18  1  0.822955  0.176387  0.238314  1
