# generated using pymatgen
data_MnO3
_symmetry_space_group_name_H-M   'P 1'
_cell_length_a   5.14864850
_cell_length_b   9.70550505
_cell_length_c   4.68666511
_cell_angle_alpha   90.00000000
_cell_angle_beta   98.04106561
_cell_angle_gamma   90.00000000
_symmetry_Int_Tables_number   1
_chemical_formula_structural   MnO3
_chemical_formula_sum   'Mn4 O12'
_cell_volume   231.89117439
_cell_formula_units_Z   4
loop_
 _symmetry_equiv_pos_site_id
 _symmetry_equiv_pos_as_xyz
  1  'x, y, z'
loop_
 _atom_site_type_symbol
 _atom_site_label
 _atom_site_symmetry_multiplicity
 _atom_site_fract_x
 _atom_site_fract_y
 _atom_site_fract_z
 _atom_site_occupancy
  Mn  Mn1  1  -0.060936  0.204413  -0.000022  1
  Mn  Mn2  1  -0.060936  0.795587  -0.000022  1
  Mn  Mn3  1  0.439064  0.704413  -0.000022  1
  Mn  Mn4  1  0.439064  0.295587  -0.000022  1
  O  O5  1  0.860207  -0.000000  0.113391  1
  O  O6  1  0.360207  0.500000  0.113391  1
  O  O7  1  0.772791  0.308239  0.225572  1
  O  O8  1  0.772791  0.691761  0.225572  1
  O  O9  1  0.272791  0.808239  0.225572  1
  O  O10  1  0.272791  0.191761  0.225572  1
  O  O11  1  0.004484  -0.000000  0.890106  1
  O  O12  1  0.504484  0.500000  0.890106  1
  O  O13  1  0.605848  0.193405  0.772701  1
  O  O14  1  0.605848  0.806595  0.772701  1
  O  O15  1  0.105848  0.693405  0.772701  1
  O  O16  1  0.105848  0.306595  0.772701  1
